! UHF aug-cc-pVTZ VeryTightSCF MOREAD
%pal nprocs 32 end
%moinp "sa-casscf.gbw"

%casscf nel 10
        norb 9
        nroots 3,4
        mult 1,3
        PTMethod SC_NEVPT2
        PTSettings
          QDType QD_VanVleck
          end
        end

%output
Print[ P_Basis ] 2
Print[ P_MOs ] 1
end

* xyzfile -1 1 nitrate_cam-b3lyp_scan.00pts.xyz
